/COM,ANSYS RELEASE PRIME RELEASE 03/23/26 15:57:47 Mountain Daylight Time
/COM,File: C:\Users\mwa32\Downloads\Crystal_Plasticity_ANSYS\Crystal_Plasticity_ANSYS\Synthetic.cdb
/PREP7
/UNITS,MKS
MP, EX, 1, 200000000000, !Pa
MP, DENS, 1, 7850, !kg m ^ -3
MP, NUXY, 1, 0.3,
MP, MURX, 1, 10000,
MP, ALPX, 1, 1.2e-05, !C ^ -1
MP, C, 1, 434, !J kg ^ -1 C ^ -1
MP, KXX, 1, 60.5, !W m ^ -1 C ^ -1
MP, RSVX, 1, 1.7e-07, !kg m ^ 3 A ^ -2 s ^ -3
/COM,Beam188 -> Line2
/COM,Beam189 -> Line3
/COM,Shell181 -> Tri3
/COM,Shell181 -> Quad4
/COM,Shell281 -> Tri6
/COM,Shell281 -> Quad8
/COM,Solid285 -> Tet4
/COM,Solid185 -> Hex8
/COM,Solid187 -> Tet10
/COM,Solid186 -> Hex20
ET,        1, 188
ET,        2, 189
ET,        3, 181
ET,        4, 181
ET,        5, 281
ET,        6, 281
ET,        7, 285
ET,        8, 185
ET,        9, 187
ET,       10, 186
NBLOCK,3,SOLID,5999,5248
(3i9,3e20.13)
        1        0        0-9.9999997764826e-03-9.9999997764826e-03-9.9999997764826e-03
        2        0        0-9.9999997764826e-03 3.1698355790855e-02-9.9999997764826e-03
        3        0        0-9.9999997764826e-03 1.9701951977448e-02 9.9999811500311e-03
        4        0        0-9.9999997764826e-03-9.9999997764826e-03 9.9999811500311e-03
        5        0        0 1.9591531765035e-02-9.9999997764826e-03 9.9999811500311e-03
        6        0        0 3.1636674851382e-02-9.9999997764826e-03-9.9999997764826e-03
        7        0        0 1.9668842785625e-02 1.9698180947497e-02-9.9999997764826e-03
        8        0        0 1.5185441445830e-02 1.5257810529733e-02 9.9999811500311e-03
        9        0        0 4.9698167443647e-02-9.9999997764826e-03 9.9999811500311e-03
       10        0        0 6.1915474262865e-02-9.9999997764826e-03-9.9999997764826e-03
       11        0        0 4.9834017592563e-02 1.5249809937292e-02-9.9999997764826e-03
       12        0        0 4.1720646744809e-02 1.3108548506566e-02 9.9999811500311e-03
       13        0        0 7.6650732863874e-02-9.9999997764826e-03 9.9999811500311e-03
       14        0        0 8.8155631995519e-02-9.9999997764826e-03-9.9999997764826e-03
       15        0        0 7.6834598991742e-02 1.3094126547052e-02-9.9999997764826e-03
       16        0        0 6.7791229321625e-02 1.1901692889714e-02 9.9999811500311e-03
       17        0        0 1.0136442402571e-01-9.9999997764826e-03 9.9999811500311e-03
       18        0        0 1.1226192296649e-01-9.9999997764826e-03-9.9999997764826e-03
       19        0        0 1.0158766804467e-01 1.1877150704936e-02-9.9999997764826e-03
       20        0        0 9.2472049624286e-02 1.1165531854646e-02 9.9999811500311e-03
! ... 5228 like lines cut
N, R5.3, LOC, -1,
EBLOCK,19,SOLID,15200,15200
(19i9)
        1        7        0        0        0        0        0        0        4        0        1     4474     4476     4473     4577
        1        7        0        0        0        0        0        0        4        0        2     4575     4577     4474     4473
        1        7        0        0        0        0        0        0        4        0        3     4473     4476     4475     4577
        1        7        0        0        0        0        0        0        4        0        4     4474     4476     4577     4578
        1        7        0        0        0        0        0        0        4        0        5     4474     4476     4372     4473
        1        7        0        0        0        0        0        0        4        0        6     4471     4473     4575     4474
        1        7        0        0        0        0        0        0        4        0        7     4575     4578     4474     4577
        1        7        0        0        0        0        0        0        4        0        8     4475     4476     4579     4577
        1        7        0        0        0        0        0        0        4        0        9     4372     4476     4475     4473
        1        7        0        0        0        0        0        0        4        0       10     4577     4476     4580     4578
        1        7        0        0        0        0        0        0        4        0       11     4372     4370     4474     4473
        1        7        0        0        0        0        0        0        4        0       12     4575     4576     4471     4474
        1        7        0        0        0        0        0        0        4        0       13     4474     4370     4471     4473
        1        7        0        0        0        0        0        0        4        0       14     4679     4578     4575     4577
        1        7        0        0        0        0        0        0        4        0       15     4474     4578     4575     4576
        1        7        0        0        0        0        0        0        4        0       16     4579     4476     4580     4577
        1        7        0        0        0        0        0        0        4        0       17     4475     4476     4477     4579
        1        7        0        0        0        0        0        0        4        0       18     4372     4473     4475     4371
        1        7        0        0        0        0        0        0        4        0       19     4475     4476     4372     4374
        1        7        0        0        0        0        0        0        4        0       20     4580     4578     4681     4577
! ... 15181 like lines cut
CMBLOCK,GID1,ELEM,1353  ! users component definition
(8i10)
     13848     13849     13850     13851     13852     13853     13854     13855
     13856     13857     13858     13859     13860     13861     13862     13863
     13864     13865     13866     13867     13868     13869     13870     13871
     13872     13873     13874     13875     13876     13877     13878     13879
     13880     13881     13882     13883     13884     13885     13886     13887
     13888     13889     13890     13891     13892     13893     13894     13895
     13896     13897     13898     13899     13900     13901     13902     13903
     13904     13905     13906     13907     13908     13909     13910     13911
     13912     13913     13914     13915     13916     13917     13918     13919
     13920     13921     13922     13923     13924     13925     13926     13927
     13928     13929     13930     13931     13932     13933     13934     13935
     13936     13937     13938     13939     13940     13941     13942     13943
     13944     13945     13946     13947     13948     13949     13950     13951
     13952     13953     13954     13955     13956     13957     13958     13959
     13960     13961     13962     13963     13964     13965     13966     13967
     13968     13969     13970     13971     13972     13973     13974     13975
     13976     13977     13978     13979     13980     13981     13982     13983
     13984     13985     13986     13987     13988     13989     13990     13991
     13992     13993     13994     13995     13996     13997     13998     13999
     14000     14001     14002     14003     14004     14005     14006     14007
! ... 150 like lines cut
CMBLOCK,GID2,ELEM,3328  ! users component definition
(8i10)
     10520     10521     10522     10523     10524     10525     10526     10527
     10528     10529     10530     10531     10532     10533     10534     10535
     10536     10537     10538     10539     10540     10541     10542     10543
     10544     10545     10546     10547     10548     10549     10550     10551
     10552     10553     10554     10555     10556     10557     10558     10559
     10560     10561     10562     10563     10564     10565     10566     10567
     10568     10569     10570     10571     10572     10573     10574     10575
     10576     10577     10578     10579     10580     10581     10582     10583
     10584     10585     10586     10587     10588     10589     10590     10591
     10592     10593     10594     10595     10596     10597     10598     10599
     10600     10601     10602     10603     10604     10605     10606     10607
     10608     10609     10610     10611     10612     10613     10614     10615
     10616     10617     10618     10619     10620     10621     10622     10623
     10624     10625     10626     10627     10628     10629     10630     10631
     10632     10633     10634     10635     10636     10637     10638     10639
     10640     10641     10642     10643     10644     10645     10646     10647
     10648     10649     10650     10651     10652     10653     10654     10655
     10656     10657     10658     10659     10660     10661     10662     10663
     10664     10665     10666     10667     10668     10669     10670     10671
     10672     10673     10674     10675     10676     10677     10678     10679
! ... 396 like lines cut
CMBLOCK,GID3,ELEM,1651  ! users component definition
(8i10)
         1         2         3         4         5         6         7         8
         9        10        11        12        13        14        15        16
        17        18        19        20        21        22        23        24
        25        26        27        28        29        30        31        32
        33        34        35        36        37        38        39        40
        41        42        43        44        45        46        47        48
        49        50        51        52        53        54        55        56
        57        58        59        60        61        62        63        64
        65        66        67        68        69        70        71        72
        73        74        75        76        77        78        79        80
        81        82        83        84        85        86        87        88
        89        90        91        92        93        94        95        96
        97        98        99       100       101       102       103       104
       105       106       107       108       109       110       111       112
       113       114       115       116       117       118       119       120
       121       122       123       124       125       126       127       128
       129       130       131       132       133       134       135       136
       137       138       139       140       141       142       143       144
       145       146       147       148       149       150       151       152
       153       154       155       156       157       158       159       160
! ... 187 like lines cut
CMBLOCK,GID4,ELEM,2002  ! users component definition
(8i10)
      3999      4000      4001      4002      4003      4004      4005      4006
      4007      4008      4009      4010      4011      4012      4013      4014
      4015      4016      4017      4018      4019      4020      4021      4022
      4023      4024      4025      4026      4027      4028      4029      4030
      4031      4032      4033      4034      4035      4036      4037      4038
      4039      4040      4041      4042      4043      4044      4045      4046
      4047      4048      4049      4050      4051      4052      4053      4054
      4055      4056      4057      4058      4059      4060      4061      4062
      4063      4064      4065      4066      4067      4068      4069      4070
      4071      4072      4073      4074      4075      4076      4077      4078
      4079      4080      4081      4082      4083      4084      4085      4086
      4087      4088      4089      4090      4091      4092      4093      4094
      4095      4096      4097      4098      4099      4100      4101      4102
      4103      4104      4105      4106      4107      4108      4109      4110
      4111      4112      4113      4114      4115      4116      4117      4118
      4119      4120      4121      4122      4123      4124      4125      4126
      4127      4128      4129      4130      4131      4132      4133      4134
      4135      4136      4137      4138      4139      4140      4141      4142
      4143      4144      4145      4146      4147      4148      4149      4150
      4151      4152      4153      4154      4155      4156      4157      4158
! ... 231 like lines cut
CMBLOCK,GID5,ELEM,1173  ! users component definition
(8i10)
      6001      6002      6003      6004      6005      6006      6007      6008
      6009      6010      6011      6012      6013      6014      6015      6016
      6017      6018      6019      6020      6021      6022      6023      6024
      6025      6026      6027      6028      6029      6030      6031      6032
      6033      6034      6035      6036      6037      6038      6039      6040
      6041      6042      6043      6044      6045      6046      6047      6048
      6049      6050      6051      6052      6053      6054      6055      6056
      6057      6058      6059      6060      6061      6062      6063      6064
      6065      6066      6067      6068      6069      6070      6071      6072
      6073      6074      6075      6076      6077      6078      6079      6080
      6081      6082      6083      6084      6085      6086      6087      6088
      6089      6090      6091      6092      6093      6094      6095      6096
      6097      6098      6099      6100      6101      6102      6103      6104
      6105      6106      6107      6108      6109      6110      6111      6112
      6113      6114      6115      6116      6117      6118      6119      6120
      6121      6122      6123      6124      6125      6126      6127      6128
      6129      6130      6131      6132      6133      6134      6135      6136
      6137      6138      6139      6140      6141      6142      6143      6144
      6145      6146      6147      6148      6149      6150      6151      6152
      6153      6154      6155      6156      6157      6158      6159      6160
! ... 127 like lines cut
CMBLOCK,GID6,ELEM,1031  ! users component definition
(8i10)
      7174      7175      7176      7177      7178      7179      7180      7181
      7182      7183      7184      7185      7186      7187      7188      7189
      7190      7191      7192      7193      7194      7195      7196      7197
      7198      7199      7200      7201      7202      7203      7204      7205
      7206      7207      7208      7209      7210      7211      7212      7213
      7214      7215      7216      7217      7218      7219      7220      7221
      7222      7223      7224      7225      7226      7227      7228      7229
      7230      7231      7232      7233      7234      7235      7236      7237
      7238      7239      7240      7241      7242      7243      7244      7245
      7246      7247      7248      7249      7250      7251      7252      7253
      7254      7255      7256      7257      7258      7259      7260      7261
      7262      7263      7264      7265      7266      7267      7268      7269
      7270      7271      7272      7273      7274      7275      7276      7277
      7278      7279      7280      7281      7282      7283      7284      7285
      7286      7287      7288      7289      7290      7291      7292      7293
      7294      7295      7296      7297      7298      7299      7300      7301
      7302      7303      7304      7305      7306      7307      7308      7309
      7310      7311      7312      7313      7314      7315      7316      7317
      7318      7319      7320      7321      7322      7323      7324      7325
      7326      7327      7328      7329      7330      7331      7332      7333
! ... 109 like lines cut
CMBLOCK,GID7,ELEM,1277  ! users component definition
(8i10)
      9243      9244      9245      9246      9247      9248      9249      9250
      9251      9252      9253      9254      9255      9256      9257      9258
      9259      9260      9261      9262      9263      9264      9265      9266
      9267      9268      9269      9270      9271      9272      9273      9274
      9275      9276      9277      9278      9279      9280      9281      9282
      9283      9284      9285      9286      9287      9288      9289      9290
      9291      9292      9293      9294      9295      9296      9297      9298
      9299      9300      9301      9302      9303      9304      9305      9306
      9307      9308      9309      9310      9311      9312      9313      9314
      9315      9316      9317      9318      9319      9320      9321      9322
      9323      9324      9325      9326      9327      9328      9329      9330
      9331      9332      9333      9334      9335      9336      9337      9338
      9339      9340      9341      9342      9343      9344      9345      9346
      9347      9348      9349      9350      9351      9352      9353      9354
      9355      9356      9357      9358      9359      9360      9361      9362
      9363      9364      9365      9366      9367      9368      9369      9370
      9371      9372      9373      9374      9375      9376      9377      9378
      9379      9380      9381      9382      9383      9384      9385      9386
      9387      9388      9389      9390      9391      9392      9393      9394
      9395      9396      9397      9398      9399      9400      9401      9402
! ... 140 like lines cut
CMBLOCK,GID8,ELEM,1038  ! users component definition
(8i10)
      8205      8206      8207      8208      8209      8210      8211      8212
      8213      8214      8215      8216      8217      8218      8219      8220
      8221      8222      8223      8224      8225      8226      8227      8228
      8229      8230      8231      8232      8233      8234      8235      8236
      8237      8238      8239      8240      8241      8242      8243      8244
      8245      8246      8247      8248      8249      8250      8251      8252
      8253      8254      8255      8256      8257      8258      8259      8260
      8261      8262      8263      8264      8265      8266      8267      8268
      8269      8270      8271      8272      8273      8274      8275      8276
      8277      8278      8279      8280      8281      8282      8283      8284
      8285      8286      8287      8288      8289      8290      8291      8292
      8293      8294      8295      8296      8297      8298      8299      8300
      8301      8302      8303      8304      8305      8306      8307      8308
      8309      8310      8311      8312      8313      8314      8315      8316
      8317      8318      8319      8320      8321      8322      8323      8324
      8325      8326      8327      8328      8329      8330      8331      8332
      8333      8334      8335      8336      8337      8338      8339      8340
      8341      8342      8343      8344      8345      8346      8347      8348
      8349      8350      8351      8352      8353      8354      8355      8356
      8357      8358      8359      8360      8361      8362      8363      8364
! ... 110 like lines cut
CMBLOCK,GID9,ELEM,2347  ! users component definition
(8i10)
      1652      1653      1654      1655      1656      1657      1658      1659
      1660      1661      1662      1663      1664      1665      1666      1667
      1668      1669      1670      1671      1672      1673      1674      1675
      1676      1677      1678      1679      1680      1681      1682      1683
      1684      1685      1686      1687      1688      1689      1690      1691
      1692      1693      1694      1695      1696      1697      1698      1699
      1700      1701      1702      1703      1704      1705      1706      1707
      1708      1709      1710      1711      1712      1713      1714      1715
      1716      1717      1718      1719      1720      1721      1722      1723
      1724      1725      1726      1727      1728      1729      1730      1731
      1732      1733      1734      1735      1736      1737      1738      1739
      1740      1741      1742      1743      1744      1745      1746      1747
      1748      1749      1750      1751      1752      1753      1754      1755
      1756      1757      1758      1759      1760      1761      1762      1763
      1764      1765      1766      1767      1768      1769      1770      1771
      1772      1773      1774      1775      1776      1777      1778      1779
      1780      1781      1782      1783      1784      1785      1786      1787
      1788      1789      1790      1791      1792      1793      1794      1795
      1796      1797      1798      1799      1800      1801      1802      1803
      1804      1805      1806      1807      1808      1809      1810      1811
! ... 274 like lines cut
FINISH
